<?xml version="1.0" ?>
<additional>
   <detectors>
      <e1Detector id="0012_2" lane="23166741#3_3" pos="13.825401899196786" freq="3600" file="out.xml"/>
      <e1Detector id="0012_1" lane="23166741#3_2" pos="14.247084180911534" freq="3600" file="out.xml"/>
      <e1Detector id="0012_3" lane="201201950#2_3" pos="50" freq="3600" file="out.xml"/>
      <e1Detector id="0012_4" lane="201201950#2_2" pos="50" freq="3600" file="out.xml"/>
      <e1Detector id="0013_2" lane="201201953#2_3" pos="130.34935769717518" freq="3600" file="out.xml"/>
      <e1Detector id="0013_1" lane="201201953#2_2" pos="130.34225594135955" freq="3600" file="out.xml"/>
      <e1Detector id="0013_4" lane="176550249#5_3" pos="160.27789974859803" freq="3600" file="out.xml"/>
      <e1Detector id="0013_3" lane="176550249#5_2" pos="160.80759003217963" freq="3600" file="out.xml"/>
      <e1Detector id="0014_2" lane="201201953#8_3" pos="21.016779589978007" freq="3600" file="out.xml"/>
      <e1Detector id="0014_1" lane="201201953#8_2" pos="20.590201251735657" freq="3600" file="out.xml"/>
      <e1Detector id="0014_4" lane="176550249#2_3" pos="146" freq="3600" file="out.xml"/>
      <e1Detector id="0014_3" lane="176550249#2_2" pos="146" freq="3600" file="out.xml"/>
      <e1Detector id="0024_2" lane="42745545#0_3" pos="20.256063010035298" freq="3600" file="out.xml"/>
      <e1Detector id="0024_1" lane="42745545#0_2" pos="30.265938461772958" freq="3600" file="out.xml"/>
      <e1Detector id="0024_4" lane="54169280#5.31_3" pos="7.000829682920951" freq="3600" file="out.xml"/>
      <e1Detector id="0024_3" lane="54169280#5.31_2" pos="0.0" freq="3600" file="out.xml"/>
      <e1Detector id="0026_2" lane="51244813#2_2" pos="0.0" freq="3600" file="out.xml"/>
      <e1Detector id="0026_1" lane="-51244813#5_2" pos="90" freq="3600" file="out.xml"/>
      <e1Detector id="0036_2" lane="31342350#2_3" pos="5.853092026093249" freq="3600" file="out.xml"/>
      <e1Detector id="0036_1" lane="31342350#2_2" pos="5.601938227911527" freq="3600" file="out.xml"/>
      <e1Detector id="0036_4" lane="4942575#0_3" pos="160" freq="3600" file="out.xml"/>
      <e1Detector id="0036_3" lane="4942575#0_2" pos="160" freq="3600" file="out.xml"/>
      <e1Detector id="0048_2" lane="-140684000#1_2" pos="0" freq="3600" file="out.xml"/>
      <e1Detector id="0048_1" lane="140684000#1_2" pos="0" freq="3600" file="out.xml"/>
      <e1Detector id="0054_1" lane="-582810642#1_0" pos="0" freq="3600" file="out.xml"/>
      <e1Detector id="0054_2" lane="700272077_0" pos="10" freq="3600" file="out.xml"/>
      <e1Detector id="1010_4" lane="130996520_3" pos="74.49003996441463" freq="3600" file="out.xml"/>
      <e1Detector id="1010_3" lane="130996520_2" pos="60.085194490671334" freq="3600" file="out.xml"/>
      <e1Detector id="1010_2" lane="130996520_1" pos="60.31822670158873" freq="3600" file="out.xml"/>
      <e1Detector id="1010_1" lane="130996520_0" pos="85.44788479324633" freq="3600" file="out.xml"/>
      <e1Detector id="1010_9" lane="gneE18_1" pos="3" freq="3600" file="out.xml"/>
      <e1Detector id="1010_8" lane="gneE18_0" pos="3" freq="3600" file="out.xml"/>
      <e1Detector id="1010_7" lane="201278218#0.62_2" pos="10" freq="3600" file="out.xml"/>
      <e1Detector id="1010_6" lane="201278218#0.62_1" pos="6.326655326257762" freq="3600" file="out.xml"/>
      <e1Detector id="1010_5" lane="201278218#0.62_0" pos="21.235554544480625" freq="3600" file="out.xml"/>
      <e1Detector id="1010_12" lane="816287457#0_3" pos="45" freq="3600" file="out.xml"/>
      <e1Detector id="1010_11" lane="816287457#0_2" pos="45" freq="3600" file="out.xml"/>
      <e1Detector id="1010_10" lane="816287457#0_1" pos="30" freq="3600" file="out.xml"/>
      <e1Detector id="1010_16" lane="815517019_3" pos="35" freq="3600" file="out.xml"/>
      <e1Detector id="1010_14" lane="815517019_2" pos="35" freq="3600" file="out.xml"/>
      <e1Detector id="1010_15" lane="815517019_2" pos="35.04247508910513" freq="3600" file="out.xml"/>
      <e1Detector id="1010_13" lane="815517019_0" pos="40.181131513790994" freq="3600" file="out.xml"/>
      <e1Detector id="1011_4" lane="172515811_2" pos="55.03270828688507" freq="3600" file="out.xml"/>
      <e1Detector id="1011_3" lane="172515811_1" pos="55.0709692265976" freq="3600" file="out.xml"/>
      <e1Detector id="1011_2" lane="172515811_0" pos="55.026807707995964" freq="3600" file="out.xml"/>
      <e1Detector id="1011_6" lane="29458640_2" pos="32.366509951055306" freq="3600" file="out.xml"/>
      <e1Detector id="1011_5" lane="29458640_1" pos="42.5555614989196" freq="3600" file="out.xml"/>
      <e1Detector id="1011_7" lane="29458640_0" pos="42.80450312697353" freq="3600" file="out.xml"/>
      <e1Detector id="1014_7" lane="131118463#0_0" pos="25" freq="3600" file="out.xml"/>
      <e1Detector id="1014_2" lane="131118468#0.32_1" pos="5" freq="3600" file="out.xml"/>
      <e1Detector id="1014_1" lane="131118468#0.32_0" pos="5" freq="3600" file="out.xml"/>
      <e1Detector id="1014_5" lane="54033673#0.34_1" pos="14.57237140097528" freq="3600" file="out.xml"/>
      <e1Detector id="1014_4" lane="54033673#0.34_2" pos="6.532693847223254" freq="3600" file="out.xml"/>
      <e1Detector id="1014_3" lane="54033673#0.34_0" pos="6.145038004550024" freq="3600" file="out.xml"/>
      <e1Detector id="1021_7" lane="gneE30_0" pos="0.0" freq="3600" file="out.xml"/>
      <e1Detector id="1021_3" lane="379723624#1_4" pos="33.961128186707484" freq="3600" file="out.xml"/>
      <e1Detector id="1021_2" lane="379723624#1_3" pos="1.8888088280661237" freq="3600" file="out.xml"/>
      <e1Detector id="1021_1" lane="379723624#1_2" pos="1.851893238783082" freq="3600" file="out.xml"/>
      <e1Detector id="1021_4" lane="-130996521#1_1" pos="65.6582475045463" freq="3600" file="out.xml"/>
      <e1Detector id="1021_6" lane="28418763_3" pos="140" freq="3600" file="out.xml"/>
      <e1Detector id="1022_8" lane="-26471752#1_2" pos="6.932674137788268" freq="3600" file="out.xml"/>
      <e1Detector id="1022_7" lane="-26471752#1_1" pos="7.310401722416665" freq="3600" file="out.xml"/>
      <e1Detector id="1022_2" lane="32923867#1_3" pos="102.03549230518381" freq="3600" file="out.xml"/>
      <e1Detector id="1022_1" lane="32923867#1_2" pos="104.30387922466336" freq="3600" file="out.xml"/>
      <e1Detector id="1022_6" lane="-32923867#4_4" pos="19" freq="3600" file="out.xml"/>
      <e1Detector id="1022_5" lane="-32923867#4_3" pos="6" freq="3600" file="out.xml"/>
      <e1Detector id="1022_4" lane="-32923867#4_3" pos="10.012112644372683" freq="3600" file="out.xml"/>
      <e1Detector id="1080_4" lane="749560262.18_1" pos="8.610232202768616" freq="3600" file="out.xml"/>
      <e1Detector id="1080_3" lane="749560262.18_0" pos="8.549757708035765" freq="3600" file="out.xml"/>
      <e1Detector id="1080_5" lane="-749560274#2_2" pos="64.96212711188251" freq="3600" file="out.xml"/>
      <e1Detector id="1080_2" lane="825445496#1.47_3" pos="0" freq="3600" file="out.xml"/>
      <e1Detector id="1080_1" lane="825445496#1.47_2" pos="0" freq="3600" file="out.xml"/>
      <e1Detector id="2050_3" lane="42745461#1_4" pos="24.56912832511107" freq="3600" file="out.xml"/>
      <e1Detector id="2050_2" lane="42745461#1_3" pos="0.0" freq="3600" file="out.xml"/>
      <e1Detector id="2050_1" lane="42745461#1_2" pos="9.603214105531286" freq="3600" file="out.xml"/>
      <e1Detector id="2050_5" lane="-54154921#1_1" pos="15" freq="3600" file="out.xml"/>
      <e1Detector id="2050_8" lane="-54154922#1_4" pos="28.27244905185181" freq="3600" file="out.xml"/>
      <e1Detector id="2050_7" lane="-54154922#1_3" pos="18.53115335935876" freq="3600" file="out.xml"/>
      <e1Detector id="2050_6" lane="-54154922#1_2" pos="8.708214025565072" freq="3600" file="out.xml"/>
      <e1Detector id="2050_9" lane="24977473#4_1" pos="5" freq="3600" file="out.xml"/>
      <e1Detector id="3010_4" lane="380273341_3" pos="0" freq="3600" file="out.xml"/>
      <e1Detector id="3010_3" lane="380273341_2" pos="0" freq="3600" file="out.xml"/>
      <e1Detector id="3010_6" lane="233673425#0_2" pos="17.136902201073116" freq="3600" file="out.xml"/>
      <e1Detector id="3010_5" lane="233673425#0_1" pos="8.18888396742184" freq="3600" file="out.xml"/>
      <e1Detector id="3010_8" lane="266565302_1" pos="33.13472571283404" freq="3600" file="out.xml"/>
      <e1Detector id="3010_7" lane="266565302_0" pos="33.143975427196814" freq="3600" file="out.xml"/>
      <e1Detector id="3010_10" lane="-24977590#1_2" pos="14.328817289653308" freq="3600" file="out.xml"/>
      <e1Detector id="3010_2" lane="-24977590#1_1" pos="0.0" freq="3600" file="out.xml"/>
      <e1Detector id="3010_1" lane="-24977590#1_0" pos="0.0" freq="3600" file="out.xml"/>
      <e1Detector id="3021_6" lane="266567308#0_1" pos="0.2170607694349349" freq="3600" file="out.xml"/>
      <e1Detector id="3021_5" lane="266567308#0_0" pos="1.1193585575162943" freq="3600" file="out.xml"/>
      <e1Detector id="3021_10" lane="64464430_5" pos="24.44526702953133" freq="3600" file="out.xml"/>
      <e1Detector id="3021_9" lane="64464430_4" pos="26.304998016673785" freq="3600" file="out.xml"/>
      <e1Detector id="3021_8" lane="64464430_3" pos="26.413126842373977" freq="3600" file="out.xml"/>
      <e1Detector id="3021_7" lane="64464430_2" pos="26.521426265403583" freq="3600" file="out.xml"/>
      <e1Detector id="3021_12" lane="30417783#1_0" pos="0" freq="3600" file="out.xml"/>
      <e1Detector id="3021_11" lane="-25114091_1" pos="16.53278054602582" freq="3600" file="out.xml"/>
      <e1Detector id="3021_3" lane="64464405_4" pos="71.63338132928101" freq="3600" file="out.xml"/>
      <e1Detector id="3021_2" lane="64464405_3" pos="61.23046519792739" freq="3600" file="out.xml"/>
      <e1Detector id="3021_1" lane="64464405_2" pos="60.59875492010032" freq="3600" file="out.xml"/>
      <e1Detector id="3022_6" lane="30404130_2" pos="0" freq="3600" file="out.xml"/>
      <e1Detector id="3022_10" lane="266567304#0_4" pos="5" freq="3600" file="out.xml"/>
      <e1Detector id="3022_9" lane="266567304#0_3" pos="5.796445726994709" freq="3600" file="out.xml"/>
      <e1Detector id="3022_8" lane="266567304#0_2" pos="6.695649132448863" freq="3600" file="out.xml"/>
      <e1Detector id="3022_2" lane="323248156#0_2" pos="21.93847909871006" freq="3600" file="out.xml"/>
      <e1Detector id="3022_1" lane="323248156#0_1" pos="23.797322978521777" freq="3600" file="out.xml"/>
      <e1Detector id="3022_5" lane="266567294#0_4" pos="0" freq="3600" file="out.xml"/>
      <e1Detector id="3022_4" lane="266567294#0_3" pos="0.0" freq="3600" file="out.xml"/>
      <e1Detector id="3022_3" lane="266567294#0_2" pos="0.0" freq="3600" file="out.xml"/>
      <e1Detector id="3030_2" lane="137463475#2_3" pos="93" freq="3600" file="out.xml"/>
      <e1Detector id="3030_1" lane="137463475#2_2" pos="93" freq="3600" file="out.xml"/>
      <e1Detector id="3030_3" lane="-814691983#0_2" pos="30" freq="3600" file="out.xml"/>
      <e1Detector id="3030_8" lane="110435734_1" pos="144.93488696556884" freq="3600" file="out.xml"/>
      <e1Detector id="3030_5" lane="-28132014#1_3" pos="12.43311194747248" freq="3600" file="out.xml"/>
      <e1Detector id="3030_4" lane="-28132014#1_2" pos="12.029758091197845" freq="3600" file="out.xml"/>
      <e1Detector id="3030_6" lane="23009002#0_1" pos="100" freq="3600" file="out.xml"/>
      <e1Detector id="3040_7" lane="25796398#1_4" pos="10.73133099048129" freq="3600" file="out.xml"/>
      <e1Detector id="3040_6" lane="25796398#1_3" pos="0.7277574339836097" freq="3600" file="out.xml"/>
      <e1Detector id="3040_5" lane="25796398#1_2" pos="0.0" freq="3600" file="out.xml"/>
      <e1Detector id="3040_10" lane="814691984#1_4" pos="10.789985147590185" freq="3600" file="out.xml"/>
      <e1Detector id="3040_9" lane="814691984#1_3" pos="0.0" freq="3600" file="out.xml"/>
      <e1Detector id="3040_8" lane="814691984#1_2" pos="0.0" freq="3600" file="out.xml"/>
      <e1Detector id="3040_13" lane="137463477#1_4" pos="15" freq="3600" file="out.xml"/>
      <e1Detector id="3040_12" lane="137463477#1_3" pos="1" freq="3600" file="out.xml"/>
      <e1Detector id="3040_11" lane="137463477#1_2" pos="1" freq="3600" file="out.xml"/>
      <e1Detector id="3040_4" lane="31342064#2_4" pos="20.911679540485444" freq="3600" file="out.xml"/>
      <e1Detector id="3040_3" lane="31342064#2_3" pos="4.805202713013263" freq="3600" file="out.xml"/>
      <e1Detector id="3040_2" lane="31342064#2_2" pos="4.756898083873483" freq="3600" file="out.xml"/>
      <e1Detector id="3050_7" lane="33280102#3_4" pos="55.4355627149646" freq="3600" file="out.xml"/>
      <e1Detector id="3050_6" lane="33280102#3_3" pos="54.41678318918228" freq="3600" file="out.xml"/>
      <e1Detector id="3050_5" lane="33280102#3_2" pos="55.11698227336639" freq="3600" file="out.xml"/>
      <e1Detector id="3050_9" lane="151167728.19_3" pos="0.0" freq="3600" file="out.xml"/>
      <e1Detector id="3050_8" lane="151167728.19_2" pos="0.0" freq="3600" file="out.xml"/>
      <e1Detector id="3050_10" lane="814691983#4_2" pos="90" freq="3600" file="out.xml"/>
      <e1Detector id="3050_4" lane="266507551_4" pos="20" freq="3600" file="out.xml"/>
      <e1Detector id="3050_2" lane="266507551_3" pos="20" freq="3600" file="out.xml"/>
      <e1Detector id="3050_1" lane="266507551_2" pos="20" freq="3600" file="out.xml"/>
      <e1Detector id="3060_3" lane="175761129#4_1" pos="3.8929949668355" freq="3600" file="out.xml"/>
      <e1Detector id="3060_8" lane="-202070429#8_3" pos="34.33468117587513" freq="3600" file="out.xml"/>
      <e1Detector id="3060_7" lane="-202070429#8_2" pos="34.216036316716384" freq="3600" file="out.xml"/>
      <e1Detector id="3060_2" lane="202070429#5_3" pos="44.093118218557436" freq="3600" file="out.xml"/>
      <e1Detector id="3060_1" lane="202070429#5_2" pos="43.957682928316956" freq="3600" file="out.xml"/>
      <e1Detector id="3060_5" lane="-202070429#11_3" pos="225" freq="3600" file="out.xml"/>
      <e1Detector id="3060_4" lane="-202070429#11_2" pos="226.9790759263627" freq="3600" file="out.xml"/>
      <e1Detector id="3060_6" lane="-153692837#1_1" pos="42" freq="3600" file="out.xml"/>
      <e1Detector id="3060_9" lane="202070429#8_3" pos="30" freq="3600" file="out.xml"/>
      <e1Detector id="3060_10" lane="202070429#8_2" pos="30" freq="3600" file="out.xml"/>
      <e1Detector id="3080_4" lane="-201789794#1_3" pos="0.02688986420623383" freq="3600" file="out.xml"/>
      <e1Detector id="3080_5" lane="-201789794#1_2" pos="0.0" freq="3600" file="out.xml"/>
      <e1Detector id="3080_1" lane="gneE23_1" pos="0.3668819338286583" freq="3600" file="out.xml"/>
      <e1Detector id="3080_3" lane="202070429#12.80_3" pos="20" freq="3600" file="out.xml"/>
      <e1Detector id="3080_2" lane="202070429#12.80_2" pos="21.74996732188515" freq="3600" file="out.xml"/>
      <e1Detector id="3090_5" lane="-542727960#0_2" pos="1" freq="3600" file="out.xml"/>
      <e1Detector id="3090_4" lane="-542727960#0_1" pos="1" freq="3600" file="out.xml"/>
      <e1Detector id="3090_7" lane="31342349#2_3" pos="100" freq="3600" file="out.xml"/>
      <e1Detector id="3090_6" lane="31342349#2_2" pos="100" freq="3600" file="out.xml"/>
      <e1Detector id="3090_11" lane="54858974#0_4" pos="0" freq="3600" file="out.xml"/>
      <e1Detector id="3090_10" lane="54858974#0_3" pos="0" freq="3600" file="out.xml"/>
      <e1Detector id="3090_9" lane="54858974#0_2" pos="0" freq="3600" file="out.xml"/>
      <e1Detector id="3090_3" lane="765244913#1.57_5" pos="58.73188268052471" freq="3600" file="out.xml"/>
      <e1Detector id="3090_2" lane="765244913#1.57_4" pos="38.120142025854015" freq="3600" file="out.xml"/>
      <e1Detector id="3090_1" lane="765244913#1.57_3" pos="37.62196379318112" freq="3600" file="out.xml"/>
      <e1Detector id="3091_4" lane="-30399316#4_2" pos="117.34277687511286" freq="3600" file="out.xml"/>
      <e1Detector id="3091_2" lane="30399316#2_3" pos="11.605260161619382" freq="3600" file="out.xml"/>
      <e1Detector id="3091_1" lane="30399316#2_2" pos="9" freq="3600" file="out.xml"/>
      <e1Detector id="3091_3" lane="-25344437#1_1" pos="110.05730566210966" freq="3600" file="out.xml"/>
      <e1Detector id="3100_4_0" lane="-23009600#1_2" pos="12.91536126900232" freq="3600" file="out.xml"/>
      <e1Detector id="3100_4_1" lane="-23009600#1_1" pos="13.843900609358563" freq="3600" file="out.xml"/>
      <e1Detector id="3100_6" lane="4942575#3_3" pos="95" freq="3600" file="out.xml"/>
      <e1Detector id="3100_5" lane="4942575#3_2" pos="95.86521880726079" freq="3600" file="out.xml"/>
      <e1Detector id="3100_7_0" lane="-31342351#1_2" pos="0.0" freq="3600" file="out.xml"/>
      <e1Detector id="3100_7_1" lane="-31342351#1_1" pos="0.0" freq="3600" file="out.xml"/>
      <e1Detector id="3100_3" lane="32203023#2.136_4" pos="15.58224364799238" freq="3600" file="out.xml"/>
      <e1Detector id="3100_2" lane="32203023#2.136_3" pos="5" freq="3600" file="out.xml"/>
      <e1Detector id="3100_1" lane="32203023#2.136_2" pos="5" freq="3600" file="out.xml"/>
      <e1Detector id="3110_5" lane="-97304242#1_3" pos="6.5567091345799415" freq="3600" file="out.xml"/>
      <e1Detector id="3110_4" lane="-97304242#1_2" pos="6.632128196777731" freq="3600" file="out.xml"/>
      <e1Detector id="3110_8" lane="391029008#3_4" pos="3" freq="3600" file="out.xml"/>
      <e1Detector id="3110_7" lane="391029008#3_3" pos="3" freq="3600" file="out.xml"/>
      <e1Detector id="3110_6" lane="391029008#3_2" pos="3" freq="3600" file="out.xml"/>
      <e1Detector id="3110_11" lane="33280103#7_4" pos="12.032873603370305" freq="3600" file="out.xml"/>
      <e1Detector id="3110_10" lane="33280103#7_3" pos="12.91224387795928" freq="3600" file="out.xml"/>
      <e1Detector id="3110_9" lane="33280103#7_2" pos="13.846526525384057" freq="3600" file="out.xml"/>
      <e1Detector id="3110_3" lane="31342350#5_4" pos="0.20845556337244292" freq="3600" file="out.xml"/>
      <e1Detector id="3110_2" lane="31342350#5_3" pos="0" freq="3600" file="out.xml"/>
      <e1Detector id="3110_1" lane="31342350#5_2" pos="0" freq="3600" file="out.xml"/>
      <e1Detector id="3120_5" lane="-31620259_2" pos="13.824131296740857" freq="3600" file="out.xml"/>
      <e1Detector id="3120_4" lane="-31620259_1" pos="13.659899754172162" freq="3600" file="out.xml"/>
      <e1Detector id="3120_8" lane="266507547#0_2" pos="50" freq="3600" file="out.xml"/>
      <e1Detector id="3120_7" lane="266507547#0_1" pos="30" freq="3600" file="out.xml"/>
      <e1Detector id="3120_6" lane="266507547#0_0" pos="30" freq="3600" file="out.xml"/>
      <e1Detector id="3120_10" lane="718828178#1_2" pos="14.782151398268148" freq="3600" file="out.xml"/>
      <e1Detector id="3120_9" lane="718828178#1_1" pos="17.23529644061065" freq="3600" file="out.xml"/>
      <e1Detector id="3120_3" lane="266507550#0_4" pos="49.131476984569886" freq="3600" file="out.xml"/>
      <e1Detector id="3120_2" lane="266507550#0_3" pos="34.2014484447854" freq="3600" file="out.xml"/>
      <e1Detector id="3120_1" lane="266507550#0_2" pos="34.16573287976151" freq="3600" file="out.xml"/>
      <e1Detector id="3130_5" lane="266507553.35_1" pos="15.73334743173834" freq="3600" file="out.xml"/>
      <e1Detector id="3130_4" lane="266507553.35_0" pos="17.375869187350993" freq="3600" file="out.xml"/>
      <e1Detector id="3130_7" lane="39704919#0_1" pos="4.646314773265211" freq="3600" file="out.xml"/>
      <e1Detector id="3130_6" lane="39704919#0_0" pos="4.991217384192394" freq="3600" file="out.xml"/>
      <e1Detector id="3130_3" lane="266507548_2" pos="26" freq="3600" file="out.xml"/>
      <e1Detector id="3130_2" lane="266507548_1" pos="26" freq="3600" file="out.xml"/>
      <e1Detector id="3130_1" lane="266507548_0" pos="26" freq="3600" file="out.xml"/>
      <e1Detector id="3150_3" lane="151167747#0.13_4" pos="57" freq="3600" file="out.xml"/>
      <e1Detector id="3150_2" lane="151167747#0.13_3" pos="57" freq="3600" file="out.xml"/>
      <e1Detector id="3150_1" lane="151167747#0.13_2" pos="38.77166128257673" freq="3600" file="out.xml"/>
      <e1Detector id="3150_5" lane="266507542#0_1" pos="6.759335181259573" freq="3600" file="out.xml"/>
      <e1Detector id="3150_6_0" lane="39530041_0" pos="35" freq="3600" file="out.xml"/>
      <e1Detector id="3150_4" lane="266507542#0_0" pos="6.1174275837830585" freq="3600" file="out.xml"/>
      <e1Detector id="3150_6_1" lane="39530041_1" pos="35" freq="3600" file="out.xml"/>
      <e1Detector id="3150_9" lane="266507554#0_2" pos="39" freq="3600" file="out.xml"/>
      <e1Detector id="3150_8" lane="266507554#0_1" pos="9" freq="3600" file="out.xml"/>
      <e1Detector id="3150_7" lane="266507554#0_0" pos="9" freq="3600" file="out.xml"/>
      <e1Detector id="3150_10" lane="-726514453#1_1" pos="33.4152033306466" freq="3600" file="out.xml"/>
      <e1Detector id="3150_11" lane="26180725_1" pos="100" freq="3600" file="out.xml"/>
      <e1Detector id="3160_3" lane="41425835#0.246_4" pos="21.833847912687936" freq="3600" file="out.xml"/>
      <e1Detector id="3160_2" lane="41425835#0.246_3" pos="11.314651505846903" freq="3600" file="out.xml"/>
      <e1Detector id="3160_1" lane="41425835#0.246_2" pos="10.516670161129392" freq="3600" file="out.xml"/>
      <e1Detector id="3160_5" lane="-718828179#1.15_2" pos="0.0" freq="3600" file="out.xml"/>
      <e1Detector id="3160_4" lane="-718828179#1.15_1" pos="0.0" freq="3600" file="out.xml"/>
      <e1Detector id="3160_7" lane="266507557#2_1" pos="0.0" freq="3600" file="out.xml"/>
      <e1Detector id="3160_6" lane="266507557#2_0" pos="0.0" freq="3600" file="out.xml"/>
      <e1Detector id="3180_3" lane="391029009#0.80_4" pos="14.449755809381664" freq="3600" file="out.xml"/>
      <e1Detector id="3180_2" lane="391029009#0.80_3" pos="14.315287051489369" freq="3600" file="out.xml"/>
      <e1Detector id="3180_1" lane="391029009#0.80_2" pos="24.111191382984092" freq="3600" file="out.xml"/>
      <e1Detector id="3180_6" lane="542650763#1.87_4" pos="42.16346315571435" freq="3600" file="out.xml"/>
      <e1Detector id="3180_5" lane="542650763#1.87_3" pos="15.135363347636675" freq="3600" file="out.xml"/>
      <e1Detector id="3180_4" lane="542650763#1.87_2" pos="15.231131825555913" freq="3600" file="out.xml"/>
      <e1Detector id="3180_8" lane="-726514451#1.22_2" pos="9.77693632720628" freq="3600" file="out.xml"/>
      <e1Detector id="3180_7" lane="-726514451#1.22_1" pos="9.880136330333276" freq="3600" file="out.xml"/>
      <e1Detector id="4010_8" lane="-201201945#1.91_3" pos="28.449488314324206" freq="3600" file="out.xml"/>
      <e1Detector id="4010_7" lane="-201201945#1.91_2" pos="24.83213763309965" freq="3600" file="out.xml"/>
      <e1Detector id="4010_2" lane="23166741#5_3" pos="119.78578809616619" freq="3600" file="out.xml"/>
      <e1Detector id="4010_1" lane="23166741#5_2" pos="120.39133300618461" freq="3600" file="out.xml"/>
      <e1Detector id="4010_4" lane="201238718#1.33_3" pos="0.0" freq="3600" file="out.xml"/>
      <e1Detector id="4010_3" lane="201238718#1.33_2" pos="0.0" freq="3600" file="out.xml"/>
      <e1Detector id="4010_6" lane="176550249#6_3" pos="221.25252251541679" freq="3600" file="out.xml"/>
      <e1Detector id="4010_5" lane="176550249#6_2" pos="221.0037943934409" freq="3600" file="out.xml"/>
      <e1Detector id="4020_10" lane="315358251#1_2" pos="0.0" freq="3600" file="out.xml"/>
      <e1Detector id="4020_9" lane="315358251#1_4" pos="0.0" freq="3600" file="out.xml"/>
      <e1Detector id="4020_8" lane="315358251#1_3" pos="0.0" freq="3600" file="out.xml"/>
      <e1Detector id="4020_2" lane="386687232#1_3" pos="42.472475662489266" freq="3600" file="out.xml"/>
      <e1Detector id="4020_1" lane="386687232#1_2" pos="42.37705492535595" freq="3600" file="out.xml"/>
      <e1Detector id="4020_5" lane="-815412622_4" pos="13" freq="3600" file="out.xml"/>
      <e1Detector id="4020_4" lane="-815412622_3" pos="13" freq="3600" file="out.xml"/>
      <e1Detector id="4020_3" lane="-815412622_3" pos="44.45395172621359" freq="3600" file="out.xml"/>
      <e1Detector id="4020_7" lane="202092676#1_3" pos="41.138628644031" freq="3600" file="out.xml"/>
      <e1Detector id="4020_6" lane="202092676#1_2" pos="41.01687692680069" freq="3600" file="out.xml"/>
      <e1Detector id="4040_5" lane="30399663#1_4" pos="0" freq="3600" file="out.xml"/>
      <e1Detector id="4040_4" lane="30399663#1_3" pos="0" freq="3600" file="out.xml"/>
      <e1Detector id="4040_3" lane="30399663#1_2" pos="0" freq="3600" file="out.xml"/>
      <e1Detector id="4040_8" lane="gneE12_1" pos="0" freq="3600" file="out.xml"/>
      <e1Detector id="4040_7" lane="gneE12_0" pos="0" freq="3600" file="out.xml"/>
      <e1Detector id="4040_10" lane="148050455#1_3" pos="23.42247115860781" freq="3600" file="out.xml"/>
      <e1Detector id="4040_9" lane="148050455#1_2" pos="22.80263605616184" freq="3600" file="out.xml"/>
      <e1Detector id="4040_2" lane="737320747#4.146_3" pos="10" freq="3600" file="out.xml"/>
      <e1Detector id="4040_1" lane="737320747#4.146_2" pos="10" freq="3600" file="out.xml"/>
      <e1Detector id="4050_5" lane="29119849#1_4" pos="45" freq="3600" file="out.xml"/>
      <e1Detector id="4050_4" lane="29119849#1_3" pos="37" freq="3600" file="out.xml"/>
      <e1Detector id="4050_3" lane="29119849#1_2" pos="37.67729316979488" freq="3600" file="out.xml"/>
      <e1Detector id="4050_2" lane="116687469#0_3" pos="28" freq="3600" file="out.xml"/>
      <e1Detector id="4050_1" lane="116687469#0_2" pos="28.652972934517326" freq="3600" file="out.xml"/>
      <e1Detector id="4060_4" lane="-765244914#1_0" pos="7.9002994862377784" freq="3600" file="out.xml"/>
      <e1Detector id="4060_7" lane="54858973#0_4" pos="84.96915519233248" freq="3600" file="out.xml"/>
      <e1Detector id="4060_6" lane="54858973#0_3" pos="85.28488920744246" freq="3600" file="out.xml"/>
      <e1Detector id="4060_5" lane="54858973#0_2" pos="100.71309816565393" freq="3600" file="out.xml"/>
      <e1Detector id="4060_28" lane="-gneE58_0" pos="17.255968265277357" freq="3600" file="out.xml"/>
      <e1Detector id="4060_3" lane="30399322#2_4" pos="85" freq="3600" file="out.xml"/>
      <e1Detector id="4060_2" lane="30399322#2_3" pos="65" freq="3600" file="out.xml"/>
      <e1Detector id="4060_1" lane="30399322#2_2" pos="64.66022727835283" freq="3600" file="out.xml"/>
      <e1Detector id="4070_4" lane="148050448#0_1" pos="10" freq="3600" file="out.xml"/>
      <e1Detector id="4070_7" lane="266565295#2_2" pos="101.6127824962806" freq="3600" file="out.xml"/>
      <e1Detector id="4070_6" lane="266565295#2_1" pos="100.51585130710328" freq="3600" file="out.xml"/>
      <e1Detector id="4070_3" lane="-266565295#3_1" pos="172.4514872065184" freq="3600" file="out.xml"/>
      <e1Detector id="4070_1" lane="-266565295#3_0" pos="145.92183672610693" freq="3600" file="out.xml"/>
      <e1Detector id="4090_5" lane="-815412592#0_1" pos="90" freq="3600" file="out.xml"/>
      <e1Detector id="4090_2" lane="-815412597#1_3" pos="20" freq="3600" file="out.xml"/>
      <e1Detector id="4090_1" lane="-815412597#1_2" pos="20" freq="3600" file="out.xml"/>
      <e1Detector id="4090_4" lane="815412603#1_3" pos="115" freq="3600" file="out.xml"/>
      <e1Detector id="4090_3" lane="815412603#1_2" pos="90" freq="3600" file="out.xml"/>
      <e1Detector id="4100_3" lane="315358252#1_4" pos="5" freq="3600" file="out.xml"/>
      <e1Detector id="4100_2" lane="315358252#1_3" pos="5" freq="3600" file="out.xml"/>
      <e1Detector id="4100_1" lane="315358252#1_2" pos="5" freq="3600" file="out.xml"/>
      <e1Detector id="4100_7" lane="-815412603#0_4" pos="12.17464377982955" freq="3600" file="out.xml"/>
      <e1Detector id="4100_6" lane="-815412603#0_3" pos="13.081965467331507" freq="3600" file="out.xml"/>
      <e1Detector id="4100_5" lane="-815412603#0_2" pos="14.460502015404453" freq="3600" file="out.xml"/>
      <e1Detector id="4100_9" lane="-129379925.33_3" pos="0.0" freq="3600" file="out.xml"/>
      <e1Detector id="4100_8" lane="-129379925.33_2" pos="4.844074329840536" freq="3600" file="out.xml"/>
      <e1Detector id="4110_7" lane="379897806_3" pos="9" freq="3600" file="out.xml"/>
      <e1Detector id="4110_6" lane="379897806_2" pos="9" freq="3600" file="out.xml"/>
      <e1Detector id="4110_8" lane="108240279#2_0" pos="10" freq="3600" file="out.xml"/>
      <e1Detector id="4110_3" lane="-815412608_4" pos="47" freq="3600" file="out.xml"/>
      <e1Detector id="4110_2" lane="-815412608_3" pos="47" freq="3600" file="out.xml"/>
      <e1Detector id="4110_1" lane="-815412608_2" pos="47" freq="3600" file="out.xml"/>
      <e1Detector id="4110_5" lane="129379967_3" pos="11.140113868069275" freq="3600" file="out.xml"/>
      <e1Detector id="4110_4" lane="129379967_2" pos="11.447544583720465" freq="3600" file="out.xml"/>
      <e1Detector id="4120_2" lane="164078531#0_1" pos="190" freq="3600" file="out.xml"/>
      <e1Detector id="4120_1" lane="164078531#0_0" pos="190" freq="3600" file="out.xml"/>
      <e1Detector id="4120_3" lane="29213363_0" pos="20.667707270930666" freq="3600" file="out.xml"/>
      <e1Detector id="4120_5" lane="-315358247#1_3" pos="35.53741199325739" freq="3600" file="out.xml"/>
      <e1Detector id="4120_6" lane="-315358247#1_2" pos="20.467811944071677" freq="3600" file="out.xml"/>
      <e1Detector id="4140_15" lane="137133006#0.121_2" pos="1" freq="3600" file="out.xml"/>
      <e1Detector id="4140_14" lane="137133006#0.121_1" pos="1" freq="3600" file="out.xml"/>
      <e1Detector id="4140_13" lane="137133006#0.121_0" pos="1" freq="3600" file="out.xml"/>
      <e1Detector id="4140_12" lane="gneE27_0" pos="5" freq="3600" file="out.xml"/>
      <e1Detector id="4140_4" lane="201201953#12_3" pos="5" freq="3600" file="out.xml"/>
      <e1Detector id="4140_3" lane="201201953#12_2" pos="1" freq="3600" file="out.xml"/>
      <e1Detector id="4140_2" lane="201201953#12_1" pos="22.111633555913734" freq="3600" file="out.xml"/>