<routes>
        <vType accel="1.0" decel="4.5" id="standard_car" length="5.0" minGap="2.5" maxSpeed="25" sigma="0.5" /> 

            <vehicle
            id = "pv_9_11227"
            type = "standard_car"
            depart = "32464.0"
            departLane = "free"
            departSpeed = "max">
                          <route
            edges = "31342064#2 31894763#0 "/>
                    </vehicle >
            

            <vehicle
            id = "pv_9_2677_1"
            type = "standard_car"
            depart = "32467.0"
            departLane = "free"
            departSpeed = "max">
                          <route
            edges = "31342064#2 31894763#0 "/>
                    </vehicle >
            

            <vehicle
            id = "pv_9_3285_0"
            type = "standard_car"
            depart = "32478.0"
            departLane = "free"
            departSpeed = "max">
                          <route
            edges = "814691984#1 305390325#0 "/>
                    </vehicle >
            

            <vehicle
            id = "pv_9_2432_0"
            type = "standard_car"
            depart = "32521.0"
            departLane = "free"
            departSpeed = "max">
                          <route
            edges = "137463477#0 137463477#1 305390325#0 "/>
                    </vehicle >
            

            <vehicle
            id = "pv_9_11229_1"
            type = "standard_car"
            depart = "32528.0"
            departLane = "free"
            departSpeed = "max">
                          <route
            edges = "31342064#2 31894763#0 "/>
                    </vehicle >
            

            <vehicle
            id = "pv_9_2493_0"
            type = "standard_car"
            depart = "32532.0"
            departLane = "free"
            departSpeed = "max">
                          <route
            edges = "31342064#2 31894763#0 "/>
                    </vehicle >
            

            <vehicle
            id = "pv_9_11229_0"
            type = "standard_car"
            depart = "32533.0"
            departLane = "free"
            departSpeed = "max">
                          <route
            edges = "31342064#2 31894763#0 "/>
                    </vehicle >
            

            <vehicle
            id = "pv_9_2319_0"
            type = "standard_car"
            depart = "32536.0"
            departLane = "free"
            departSpeed = "max">
                          <route
            edges = "31342064#2 305495773#0 "/>
                    </vehicle >
            

            <vehicle
            id = "pv_9_3320_1"
            type = "standard_car"
            depart = "32544.0"
            departLane = "free"
            departSpeed = "max">
                          <route
            edges = "814691984#1 25902677#1 "/>
                    </vehicle >
            

            <vehicle
            id = "pv_9_2373_1"
            type = "standard_car"
            depart = "32556.0"
            departLane = "free"
            departSpeed = "max">
                          <route
            edges = "137463477#0 137463477#1 305495773#0 "/>
                    </vehicle >
            

            <vehicle
            id = "pv_9_2504_0"
            type = "standard_car"
            depart = "32561.0"
            departLane = "free"
            departSpeed = "max">
                          <route
            edges = "25796398#0 25796398#1 31894763#0 "/>
                    </vehicle >
            

            <vehicle
            id = "pv_9_9722_0"
            type = "standard_car"
            depart = "32566.0"
            departLane = "free"
            departSpeed = "max">
                          <route
            edges = "31342064#2 31894763#0 "/>
                    </vehicle >
            

            <vehicle
            id = "pv_9_1190_1"
            type = "standard_car"
            depart = "32567.0"
            departLane = "free"
            departSpeed = "max">
                          <route
            edges = "31342064#2 305495773#0 "/>
                    </vehicle >
            

            <vehicle
            id = "pv_9_9742_0"
            type = "standard_car"
            depart = "32567.0"
            departLane = "free"
            departSpeed = "max">
                          <route
            edges = "31342064#2 305495773#0 "/>
                    </vehicle >
            

            <vehicle
            id = "pv_9_2503_1"
            type = "standard_car"
            depart = "32589.0"
            departLane = "free"
            departSpeed = "max">
                          <route
            edges = "25796398#0 25796398#1 31894763#0 "/>
                    </vehicle >
            

            <vehicle
            id = "pv_9_11224_0"
            type = "standard_car"
            depart = "32599.0"
            departLane = "free"
            departSpeed = "max">
                          <route
            edges = "31342064#2 31894763#0 "/>
                    </vehicle >
            

            <vehicle
            id = "pv_9_3191_1"
            type = "standard_car"
            depart = "32601.0"
            departLane = "free"
            departSpeed = "max">
                          <route
            edges = "814691984#1 305390325#0 "/>
                    </vehicle >
            

            <vehicle
            id = "pv_9_2712_0"
            type = "standard_car"
            depart = "32604.0"
            departLane = "free"
            departSpeed = "max">
                          <route
            edges = "31342064#2 305495773#0 "/>
                    </vehicle >
            

            <vehicle
            id = "pv_9_3349_1"
            type = "standard_car"
            depart = "32606.0"
            departLane = "free"
            departSpeed = "max">
                          <route
            edges = "137463477#0 137463477#1 25902677#1 "/>
                    </vehicle >
            

            <vehicle
            id = "pv_9_3253_1"
            type = "standard_car"
            depart = "32608.0"
            departLane = "free"
            departSpeed = "max">
                          <route
            edges = "814691984#1 25902677#1 "/>
                    </vehicle >
            

            <vehicle
            id = "pv_9_2504"
            type = "standard_car"
            depart = "32632.0"
            departLane = "free"
            departSpeed = "max">
                          <route
            edges = "25796398#0 25796398#1 31894763#0 "/>
                    </vehicle >
            

            <vehicle
            id = "pv_9_153"
            type = "standard_car"
            depart = "32632.0"
            departLane = "free"
            departSpeed = "max">
                          <route
            edges = "31342064#2 305495773#0 "/>
                    </vehicle >
            

            <vehicle
            id = "pv_9_902_0"
            type = "standard_car"
            depart = "32635.0"
            departLane = "free"
            departSpeed = "max">
                          <route
            edges = "31342064#2 305495773#0 "/>
                    </vehicle >
            

            <vehicle
            id = "pv_9_233_1"
            type = "standard_car"
            depart = "32639.0"
            departLane = "free"
            departSpeed = "max">
                          <route
            edges = "31342064#2 305495773#0 "/>
                    </vehicle >
            

            <vehicle
            id = "pv_9_3077_1"
            type = "standard_car"
            depart = "32643.0"
            departLane = "free"
            departSpeed = "max">
                          <route
            edges = "25796398#0 25796398#1 31894763#0 "/>
                    </vehicle >
            

            <vehicle
            id = "pv_9_10219_0"
            type = "standard_car"
            depart = "32660.0"
            departLane = "free"
            departSpeed = "max">
                          <route
            edges = "25796398#0 25796398#1 31894763#0 "/>
                    </vehicle >
            

            <vehicle
            id = "pv_9_3469_0"
            type = "standard_car"
            depart = "32669.0"
            departLane = "free"
            departSpeed = "max">
                          <route
            edges = "814691984#1 305390325#0 "/>
                    </vehicle >
            

            <vehicle
            id = "pv_9_2603_0"
            type = "standard_car"
            depart = "32669.0"
            departLane = "free"
            departSpeed = "max">
                          <route
            edges = "31342064#2 305495773#0 "/>
                    </vehicle >
            

            <vehicle
            id = "pv_9_5612_0"
            type = "standard_car"
            depart = "32669.0"
            departLane = "free"
            departSpeed = "max">
                          <route
            edges = "25796398#0 25796398#1 31894763#0 "/>
                    </vehicle >
            

            <vehicle
            id = "pv_9_11223_1"
            type = "standard_car"
            depart = "32671.0"
            departLane = "free"
            departSpeed = "max">
                          <route
            edges = "31342064#2 31894763#0 "/>
                    </vehicle >
            

            <vehicle
            id = "pv_9_2421_0"
            type = "standard_car"
            depart = "32674.0"
            departLane = "free"
            departSpeed = "max">
                          <route
            edges = "31342064#2 305495773#0 "/>
                    </vehicle >
            

            <vehicle
            id = "pv_9_4026_1"
            type = "standard_car"
            depart = "32675.0"
            departLane = "free"
            departSpeed = "max">
                          <route
            edges = "137463477#0 137463477#1 25902677#1 "/>
                    </vehicle >
            

            <vehicle
            id = "pv_9_11760_0"
            type = "standard_car"
            depart = "32678.0"
            departLane = "free"
            departSpeed = "max">
                          <route
            edges = "31342064#2 31894763#0 "/>
                    </vehicle >
            

            <vehicle
            id = "pv_9_3716_0"
            type = "standard_car"
            depart = "32679.0"
            departLane = "free"
            departSpeed = "max">
                          <route
            edges = "137463477#0 137463477#1 25902677#1 "/>
                    </vehicle >
            

            <vehicle
            id = "pv_9_3831_1"
            type = "standard_car"
            depart = "32680.0"
            departLane = "free"
            departSpeed = "max">
                          <route
            edges = "137463477#0 137463477#1 25902677#1 "/>
                    </vehicle >
            

            <vehicle
            id = "pv_9_2392_0"
            type = "standard_car"
            depart = "32680.0"
            departLane = "free"
            departSpeed = "max">
                          <route
            edges = "31342064#2 305495773#0 "/>
                    </vehicle >
            

            <vehicle
            id = "pv_9_4418_0"
            type = "standard_car"
            depart = "32682.0"
            departLane = "free"
            departSpeed = "max">
                          <route
            edges = "137463477#0 137463477#1 25902677#1 "/>
                    </vehicle >
            

            <vehicle
            id = "pv_9_2788_0"
            type = "standard_car"
            depart = "32689.0"
            departLane = "free"
            departSpeed = "max">
                          <route
            edges = "25796398#0 25796398#1 31894763#0 "/>
                    </vehicle >
            

            <vehicle
            id = "pv_9_9725_0"
            type = "standard_car"
            depart = "32701.0"
            departLane = "free"
            departSpeed = "max">
                          <route
            edges = "31342064#2 305495773#0 "/>
                    </vehicle >
            

            <vehicle
            id = "pv_9_9726_1"
            type = "standard_car"
            depart = "32704.0"
            departLane = "free"
            departSpeed = "max">
                          <route
            edges = "31342064#2 305495773#0 "/>
                    </vehicle >
            

            <vehicle
            id = "pv_9_1152_1"
            type = "standard_car"
            depart = "32708.0"
            departLane = "free"
            departSpeed = "max">
                          <route
            edges = "31342064#2 305495773#0 "/>
                    </vehicle >
            

            <vehicle
            id = "pv_9_2799_0"
            type = "standard_car"
            depart = "32724.0"
            departLane = "free"
            departSpeed = "max">
                          <route
            edges = "25796398#0 25796398#1 31894763#0 "/>
                    </vehicle >
            

            <vehicle
            id = "pv_9_9620"
            type = "standard_car"
            depart = "32725.0"
            departLane = "free"
            departSpeed = "max">
                          <route
            edges = "814691984#1 305390325#0 "/>
                    </vehicle >
            

            <vehicle
            id = "pv_9_109_1"
            type = "standard_car"
            depart = "32727.0"
            departLane = "free"
            departSpeed = "max">
                          <route
            edges = "31342064#2 305495773#0 "/>
                    </vehicle >
            

            <vehicle
            id = "pv_9_223"
            type = "standard_car"
            depart = "32730.0"
            departLane = "free"
            departSpeed = "max">
                          <route
            edges = "31342064#2 305495773#0 "/>
                    </vehicle >
            

            <vehicle
            id = "pv_9_8565_0"
            type = "standard_car"
            depart = "32733.0"
            departLane = "free"
            departSpeed = "max">
                          <route
            edges = "814691984#1 305390325#0 "/>
                    </vehicle >
            

            <vehicle
            id = "pv_9_9700"
            type = "standard_car"
            depart = "32734.0"
            departLane = "free"
            departSpeed = "max">
                          <route
            edges = "25796398#0 25796398#1 31894763#0 "/>
                    </vehicle >
            

            <vehicle
            id = "pv_9_104_1"
            type = "standard_car"
            depart = "32734.0"
            departLane = "free"
            departSpeed = "max">
                          <route
            edges = "31342064#2 305495773#0 "/>
                    </vehicle >
            

            <vehicle
            id = "pv_9_5397"
            type = "standard_car"
            depart = "32735.0"
            departLane = "free"
            departSpeed = "max">
                          <route
            edges = "25796398#0 25796398#1 31894763#0 "/>
                    </vehicle >
            

            <vehicle
            id = "pv_9_5585"
            type = "standard_car"
            depart = "32742.0"
            departLane = "free"
            departSpeed = "max">
                          <route
            edges = "25796398#0 25796398#1 31894763#0 "/>
                    </vehicle >
            

            <vehicle
            id = "pv_9_11066_0"
            type = "standard_car"
            depart = "32743.0"
            departLane = "free"
            departSpeed = "max">
                          <route
            edges = "25796398#0 25796398#1 31894763#0 "/>
                    </vehicle >
            

            <vehicle
            id = "pv_9_2676_1"
            type = "standard_car"
            depart = "32743.0"
            departLane = "free"
            departSpeed = "max">
                          <route
            edges = "25796398#0 25796398#1 31894763#0 "/>
                    </vehicle >
            

            <vehicle
            id = "pv_9_2649"
            type = "standard_car"
            depart = "32748.0"
            departLane = "free"
            departSpeed = "max">
                          <route
            edges = "25796398#0 25796398#1 305495773#0 "/>
                    </vehicle >
            

            <vehicle
            id = "pv_9_2648"
            type = "standard_car"
            depart = "32749.0"
            departLane = "free"
            departSpeed = "max">
                          <route
            edges = "25796398#0 25796398#1 305495773#0 "/>
                    </vehicle >
            

            <vehicle
            id = "pv_9_4453"
            type = "standard_car"
            depart = "32753.0"
            departLane = "free"
            departSpeed = "max">
                          <route
            edges = "137463477#0 137463477#1 25902677#1 "/>
                    </vehicle >
            

            <vehicle
            id = "pv_9_11242"
            type = "standard_car"
            depart = "32757.0"
            departLane = "free"
            departSpeed = "max">
                          <route
            edges = "31342064#2 31894763#0 "/>
                    </vehicle >
            

            <vehicle
            id = "pv_9_233"
            type = "standard_car"
            depart = "32779.0"
            departLane = "free"
            departSpeed = "max">
                          <route
            edges = "31342064#2 305495773#0 "/>
                    </vehicle >
            

            <vehicle
            id = "pv_9_1256_0"
            type = "standard_car"
            depart = "32783.0"
            departLane = "free"
            departSpeed = "max">
                          <route
            edges = "31342064#2 31894763#0 "/>
                    </vehicle >
            

            <vehicle
            id = "pv_9_850_0"
            type = "standard_car"
            depart = "32783.0"
            departLane = "free"
            departSpeed = "max">
                          <route
            edges = "31342064#2 305495773#0 "/>
                    </vehicle >
            

            <vehicle
            id = "pv_9_980_1"
            type = "standard_car"
            depart = "32785.0"
            departLane = "free"
            departSpeed = "max">
                          <route
            edges = "31342064#2 305495773#0 "/>
                    </vehicle >
            

            <vehicle
            id = "pv_9_2688"
            type = "standard_car"
            depart = "32788.0"
            departLane = "free"
            departSpeed = "max">
                          <route
            edges = "25796398#0 25796398#1 31894763#0 "/>
                    </vehicle >
            

            <vehicle
            id = "pv_9_3486_1"
            type = "standard_car"
            depart = "32790.0"
            departLane = "free"
            departSpeed = "max">
                          <route
            edges = "814691984#1 305390325#0 "/>
                    </vehicle >
            

            <vehicle
            id = "pv_9_1290_1"
            type = "standard_car"
            depart = "32794.0"
            departLane = "free"
            departSpeed = "max">
                          <route
            edges = "31342064#2 31894763#0 "/>
                    </vehicle >
            

            <vehicle
            id = "pv_9_10957_0"
            type = "standard_car"
            depart = "32799.0"
            departLane = "free"
            departSpeed = "max">
                          <route
            edges = "25796398#0 25796398#1 31894763#0 "/>
                    </vehicle >
            

            <vehicle
            id = "pv_9_5399_0"
            type = "standard_car"
            depart = "32800.0"
            departLane = "free"
            departSpeed = "max">
                          <route
            edges = "25796398#0 25796398#1 31894763#0 "/>
                    </vehicle >
            

            <vehicle
            id = "pv_9_8080_0"
            type = "standard_car"
            depart = "32802.0"
            departLane = "free"
            departSpeed = "max">
                          <route
            edges = "25796398#0 25796398#1 31894763#0 "/>
                    </vehicle >
            

            <vehicle
            id = "pv_9_5985_1"
            type = "standard_car"
            depart = "32803.0"
            departLane = "free"
            departSpeed = "max">
                          <route
            edges = "814691984#1 305390325#0 "/>
                    </vehicle >
            

            <vehicle
            id = "pv_9_8229_1"
            type = "standard_car"
            depart = "32806.0"
            departLane = "free"
            departSpeed = "max">
                          <route
            edges = "814691984#1 305390325#0 "/>
                    </vehicle >
            

            <vehicle
            id = "pv_9_11232_1"
            type = "standard_car"
            depart = "32807.0"
            departLane = "free"
            departSpeed = "max">
                          <route
            edges = "31342064#2 31894763#0 "/>
                    </vehicle >
            

            <vehicle
            id = "pv_9_9624_0"
            type = "standard_car"
            depart = "32810.0"
            departLane = "free"
            departSpeed = "max">
                          <route
            edges = "814691984#1 305390325#0 "/>
                    </vehicle >
            

            <vehicle
            id = "pv_9_11068_1"
            type = "standard_car"
            depart = "32810.0"
            departLane = "free"
            departSpeed = "max">
                          <route
            edges = "25796398#0 25796398#1 31894763#0 "/>
                    </vehicle >
            

            <vehicle
            id = "pv_9_3460_0"
            type = "standard_car"
            depart = "32812.0"
            departLane = "free"
            departSpeed = "max">
                          <route
            edges = "814691984#1 305390325#0 "/>
                    </vehicle >
            

            <vehicle
            id = "pv_9_5737_1"
            type = "standard_car"
            depart = "32813.0"
            departLane = "free"
            departSpeed = "max">
                          <route
            edges = "814691984#1 305390325#0 "/>
                    </vehicle >
            

            <vehicle
            id = "pv_9_8198"
            type = "standard_car"
            depart = "32814.0"
            departLane = "free"
            departSpeed = "max">
                          <route
            edges = "814691984#1 305390325#0 "/>
                    </vehicle >
            

            <vehicle
            id = "pv_9_2216_1"
            type = "standard_car"
            depart = "32814.0"
            departLane = "free"
            departSpeed = "max">
                          <route
            edges = "814691984#1 305390325#0 "/>
                    </vehicle >
            

            <vehicle
            id = "pv_9_8561"
            type = "standard_car"
            depart = "32818.0"
            departLane = "free"
            departSpeed = "max">
                          <route
            edges = "814691984#1 305390325#0 "/>
                    </vehicle >
            

            <vehicle
            id = "pv_9_11783"
            type = "standard_car"
            depart = "32818.0"
            departLane = "free"
            departSpeed = "max">
                          <route
            edges = "25796398#0 25796398#1 31894763#0 "/>
                    </vehicle >
            

            <vehicle
            id = "pv_9_2394_1"
            type = "standard_car"
            depart = "32818.0"
            departLane = "free"
            departSpeed = "max">
                          <route
            edges = "31342064#2 305495773#0 "/>
                    </vehicle >
            

            <vehicle
            id = "pv_9_2502_1"
            type = "standard_car"
            depart = "32821.0"
            departLane = "free"
            departSpeed = "max">
                          <route
            edges = "31342064#2 31894763#0 "/>
                    </vehicle >
            

            <vehicle
            id = "pv_9_4907_1"
            type = "standard_car"
            depart = "32822.0"
            departLane = "free"
            departSpeed = "max">
                          <route
            edges = "137463477#0 137463477#1 305390325#0 "/>
                    </vehicle >
            

            <vehicle
            id = "pv_9_4111_1"
            type = "standard_car"
            depart = "32823.0"
            departLane = "free"
            departSpeed = "max">
                          <route
            edges = "137463477#0 137463477#1 25902677#1 "/>
                    </vehicle >
            

            <vehicle
            id = "pv_9_11228_1"
            type = "standard_car"
            depart = "32826.0"
            departLane = "free"
            departSpeed = "max">
                          <route
            edges = "31342064#2 31894763#0 "/>
                    </vehicle >
            

            <vehicle
            id = "pv_9_3726_1"
            type = "standard_car"
            depart = "32826.0"
            departLane = "free"
            departSpeed = "max">
                          <route
            edges = "137463477#0 137463477#1 25902677#1 "/>
                    </vehicle >
            

            <vehicle
            id = "pv_9_2313_0"
            type = "standard_car"
            depart = "32826.0"
            departLane = "free"
            departSpeed = "max">
                          <route
            edges = "137463477#0 137463477#1 25902677#1 "/>
                    </vehicle >
            

            <vehicle
            id = "pv_9_11236_0"
            type = "standard_car"
            depart = "32826.0"
            departLane = "free"
            departSpeed = "max">
                          <route
            edges = "31342064#2 31894763#0 "/>
                    </vehicle >
            

            <vehicle
            id = "pv_9_3524_1"
            type = "standard_car"
            depart = "32828.0"
            departLane = "free"
            departSpeed = "max">
                          <route
            edges = "137463477#0 137463477#1 25902677#1 "/>
                    </vehicle >
            

            <vehicle
            id = "pv_9_3840_0"
            type = "standard_car"
            depart = "32828.0"
            departLane = "free"
            departSpeed = "max">
                          <route
            edges = "137463477#0 137463477#1 25902677#1 "/>
                    </vehicle >
            

            <vehicle
            id = "pv_9_9813_1"
            type = "standard_car"
            depart = "32846.0"
            departLane = "free"
            departSpeed = "max">
                          <route
            edges = "31342064#2 305495773#0 "/>
                    </vehicle >
            

            <vehicle
            id = "pv_9_9808"
            type = "standard_car"
            depart = "32850.0"
            departLane = "free"
            departSpeed = "max">
                          <route
            edges = "31342064#2 305495773#0 "/>
                    </vehicle >
            

            <vehicle
            id = "pv_9_9809_0"
            type = "standard_car"
            depart = "32851.0"
            departLane = "free"
            departSpeed = "max">
                          <route
            edges = "31342064#2 305495773#0 "/>
                    </vehicle >
            

            <vehicle
            id = "pv_9_205_0"
            type = "standard_car"
            depart = "32852.0"
            departLane = "free"
            departSpeed = "max">
                          <route
            edges = "31342064#2 305495773#0 "/>
                    </vehicle >
            

            <vehicle
            id = "pv_9_3190_0"
            type = "standard_car"
            depart = "32852.0"
            departLane = "free"
            departSpeed = "max">
                          <route
            edges = "814691984#1 305390325#0 "/>
                    </vehicle >
            

            <vehicle
            id = "pv_9_12857_0"
            type = "standard_car"
            depart = "32853.0"
            departLane = "free"
            departSpeed = "max">
                          <route
            edges = "137463477#0 137463477#1 25902677#1 "/>
                    </vehicle >
            

            <vehicle
            id = "pv_9_1289_1"
            type = "standard_car"
            depart = "32856.0"
            departLane = "free"
            departSpeed = "max">
                          <route
            edges = "31342064#2 305495773#0 "/>
                    </vehicle >
            

            <vehicle
            id = "pv_9_1030_1"
            type = "standard_car"
            depart = "32858.0"
            departLane = "free"
            departSpeed = "max">
                          <route
            edges = "31342064#2 305495773#0 "/>
                    </vehicle >
            

            <vehicle
            id = "pv_9_1084"
            type = "standard_car"
            depart = "32858.0"
            departLane = "free"