<?xml version="1.0" ?>
<configuration>
   <input>
      <net-file value="ingolstadt_small.net.xml"/>
      <route-files value="adaptive_route.rou.xml"/>
   </input>
   <time>
      <begin value="32300"/>
      <end value="40000"/>
   </time>
   <processing>
      <step-length value="1"/>
      <ignore-junction-blocker value="15"/>
      <time-to-teleport value="300"/>
      <max-depart-delay value="100"/>
      <device.rerouting.probability value="0.2"/>
   </processing>
</configuration>
