<?xml version="1.0" encoding="UTF-8"?>

<!-- generated on 2023-01-02 21:04:44 by Eclipse SUMO netedit Version 1.9.1
<configuration xmlns:xsi="http://www.w3.org/2001/XMLSchema-instance" xsi:noNamespaceSchemaLocation="http://sumo.dlr.de/xsd/netconvertConfiguration.xsd">

    <input>
        <sumo-net-file value="C:\Users\gerner\Documents\Forschung\real_Base\SUMO_gym_Ingolstadt\sumo_ingolstadt\ingolstadt_small.net.xml"/>
    </input>

    <output>
        <output-file value="C:\Users\gerner\Documents\Forschung\real_Base\SUMO_gym_Ingolstadt\sumo_ingolstadt\ingolstadt_small.net.xml"/>
        <output.street-names value="true"/>
    </output>

    <processing>
        <geometry.min-radius.fix.railways value="false"/>
        <geometry.max-grade.fix value="false"/>
        <offset.disable-normalization value="true"/>
        <lefthand value="false"/>
    </processing>

    <junctions>
        <no-internal-links value="false"/>
        <no-turnarounds value="true"/>
        <junctions.corner-detail value="5"/>
        <junctions.limit-turn-speed value="5.5"/>
        <rectangular-lane-cut value="false"/>
    </junctions>

    <pedestrian>
        <walkingareas value="true"/>
    </pedestrian>

    <report>
        <aggregate-warnings value="5"/>
    </report>

</configuration>
-->

<net version="1.9" junctionCornerDetail="5" walkingareas="true" limitTurnSpeed="5.50" xmlns:xsi="http://www.w3.org/2001/XMLSchema-instance" xsi:noNamespaceSchemaLocation="http://sumo.dlr.de/xsd/net_file.xsd">

    <location netOffset="-672401.23,-5399632.08" convBoundary="6597.27,5191.25,6842.05,5431.56" origBoundary="11.274814,48.715766,11.611141,48.814343" projParameter="+proj=utm +zone=32 +ellps=WGS84 +datum=WGS84 +units=m +no_defs"/>

    <type id="cycleway.lane" allow="bicycle" bikeLaneWidth="-1.00"/>
    <type id="cycleway.lane|cycleway.track|highway.residential" priority="3" numLanes="1" speed="13.89" disallow="pedestrian tram rail_urban rail rail_electric ship" oneway="1" sidewalkWidth="-1.00" bikeLaneWidth="-1.00"/>
    <type id="cycleway.lane|highway.residential" priority="3" numLanes="1" speed="13.89" disallow="pedestrian tram rail_urban rail rail_electric ship" oneway="1" sidewalkWidth="-1.00" bikeLaneWidth="-1.00"/>
    <type id="cycleway.lane|highway.service" priority="1" numLanes="1" speed="13.89" allow="pedestrian delivery bicycle" oneway="1" bikeLaneWidth="-1.00"/>
    <type id="cycleway.lane|highway.tertiary" priority="10" numLanes="1" speed="13.89" disallow="pedestrian tram rail_urban rail rail_electric ship" oneway="1" sidewalkWidth="-1.00" bikeLaneWidth="-1.00"/>
    <type id="cycleway.lane|highway.unclassified" priority="4" numLanes="1" speed="13.89" disallow="pedestrian tram rail_urban rail rail_electric ship" oneway="1" sidewalkWidth="-1.00" bikeLaneWidth="-1.00"/>
    <type id="cycleway.opposite_lane" allow="bicycle" bikeLaneWidth="-1.00"/>
    <type id="cycleway.opposite_lane|highway.residential" priority="3" numLanes="1" speed="13.89" disallow="pedestrian tram rail_urban rail rail_electric ship" oneway="1" sidewalkWidth="-1.00" bikeLaneWidth="-1.00"/>
    <type id="cycleway.opposite_track" allow="bicycle" bikeLaneWidth="-1.00"/>
    <type id="cycleway.opposite_track|highway.residential" priority="3" numLanes="1" speed="13.89" disallow="pedestrian tram rail_urban rail rail_electric ship" oneway="1" sidewalkWidth="-1.00" bikeLaneWidth="-1.00"/>
    <type id="cycleway.track" allow="bicycle" bikeLaneWidth="-1.00"/>
    <type id="cycleway.track|highway.footway" priority="1" numLanes="1" speed="13.89" allow="pedestrian bicycle" oneway="1" width="3.20" bikeLaneWidth="-1.00"/>
    <type id="cycleway.track|highway.primary" priority="12" numLanes="2" speed="13.89" disallow="pedestrian tram rail_urban rail rail_electric ship" oneway="1" sidewalkWidth="-1.00" bikeLaneWidth="-1.00"/>
    <type id="cycleway.track|highway.primary_link" priority="7" numLanes="1" speed="13.89" disallow="pedestrian tram rail_urban rail rail_electric ship" oneway="1" sidewalkWidth="-1.00" bikeLaneWidth="-1.00"/>
    <type id="cycleway.track|highway.residential" priority="3" numLanes="1" speed="13.89" disallow="pedestrian tram rail_urban rail rail_electric ship" oneway="1" sidewalkWidth="-1.00" bikeLaneWidth="-1.00"/>
    <type id="cycleway.track|highway.secondary" priority="11" numLanes="2" speed="13.89" disallow="pedestrian tram rail_urban rail rail_electric ship" oneway="1" sidewalkWidth="-1.00" bikeLaneWidth="-1.00"/>
    <type id="cycleway.track|highway.secondary_link" priority="6" numLanes="1" speed="13.89" disallow="pedestrian tram rail_urban rail rail_electric ship" oneway="1" sidewalkWidth="-1.00" bikeLaneWidth="-1.00"/>
    <type id="cycleway.track|highway.service" priority="1" numLanes="1" speed="13.89" allow="pedestrian delivery bicycle" oneway="1" bikeLaneWidth="-1.00"/>
    <type id="cycleway.track|highway.tertiary" priority="10" numLanes="1" speed="13.89" disallow="pedestrian tram rail_urban rail rail_electric ship" oneway="1" sidewalkWidth="-1.00" bikeLaneWidth="-1.00"/>
    <type id="cycleway.track|highway.tertiary_link" priority="5" numLanes="1" speed="13.89" disallow="pedestrian tram rail_urban rail rail_electric ship" oneway="1" sidewalkWidth="-1.00" bikeLaneWidth="-1.00"/>
    <type id="cycleway.track|highway.unclassified" priority="4" numLanes="1" speed="13.89" disallow="pedestrian tram rail_urban rail rail_electric ship" oneway="1" sidewalkWidth="-1.00" bikeLaneWidth="-1.00"/>
    <type id="highway.bridleway" priority="1" numLanes="1" speed="2.78" allow="pedestrian" oneway="1" width="2.00"/>
    <type id="highway.bus_guideway" priority="1" numLanes="1" speed="13.89" allow="bus" oneway="1"/>
    <type id="highway.cycleway" priority="1" numLanes="1" speed="8.33" allow="bicycle" oneway="1" width="1.00"/>
    <type id="highway.footway" priority="1" numLanes="1" speed="2.78" allow="pedestrian" oneway="1" width="2.00"/>
    <type id="highway.ford" priority="1" numLanes="1" speed="2.78" allow="army" oneway="1"/>
    <type id="highway.living_street" priority="2" numLanes="1" speed="2.78" disallow="tram rail_urban rail rail_electric ship" oneway="1"/>
    <type id="highway.motorway" priority="14" numLanes="2" speed="27.78" allow="private emergency authority army vip passenger hov taxi bus coach delivery truck trailer motorcycle evehicle custom1 custom2" oneway="1"/>
    <type id="highway.motorway_link" priority="9" numLanes="1" speed="16.67" allow="private emergency authority army vip passenger hov taxi bus coach delivery truck trailer motorcycle evehicle custom1 custom2" oneway="1"/>
    <type id="highway.path" priority="1" numLanes="1" speed="2.78" allow="pedestrian bicycle" oneway="1" width="2.00"/>
    <type id="highway.pedestrian" priority="1" numLanes="1" speed="2.78" allow="pedestrian" oneway="1" width="2.00"/>
    <type id="highway.primary" priority="12" numLanes="2" speed="13.89" disallow="pedestrian tram rail_urban rail rail_electric ship" oneway="1" sidewalkWidth="-1.00"/>
    <type id="highway.primary_link" priority="7" numLanes="1" speed="13.89" disallow="pedestrian tram rail_urban rail rail_electric ship" oneway="1" sidewalkWidth="-1.00"/>
    <type id="highway.raceway" priority="15" numLanes="2" speed="83.33" allow="vip" oneway="1"/>
    <type id="highway.residential" priority="3" numLanes="1" speed="13.89" disallow="pedestrian tram rail_urban rail rail_electric ship" oneway="1" sidewalkWidth="-1.00"/>
    <type id="highway.secondary" priority="11" numLanes="2" speed="13.89" disallow="pedestrian tram rail_urban rail rail_electric ship" oneway="1" sidewalkWidth="-1.00"/>
    <type id="highway.secondary_link" priority="6" numLanes="1" speed="13.89" disallow="pedestrian tram rail_urban rail rail_electric ship" oneway="1" sidewalkWidth="-1.00"/>
    <type id="highway.service" priority="1" numLanes="1" speed="5.56" allow="pedestrian delivery bicycle" oneway="1"/>
    <type id="highway.stairs" priority="1" numLanes="1" speed="1.39" allow="pedestrian" oneway="1" width="2.00"/>
    <type id="highway.step" priority="1" numLanes="1" speed="1.39" allow="pedestrian" oneway="1" width="2.00"/>
    <type id="highway.steps" priority="1" numLanes="1" speed="1.39" allow="pedestrian" oneway="1" width="2.00"/>
    <type id="highway.tertiary" priority="10" numLanes="1" speed="13.89" disallow="pedestrian tram rail_urban rail rail_electric ship" oneway="1" sidewalkWidth="-1.00"/>
    <type id="highway.tertiary_link" priority="5" numLanes="1" speed="13.89" disallow="pedestrian tram rail_urban rail rail_electric ship" oneway="1" sidewalkWidth="-1.00"/>
    <type id="highway.track" priority="1" numLanes="1" speed="5.56" disallow="tram rail_urban rail rail_electric ship" oneway="1"/>
    <type id="highway.trunk" priority="13" numLanes="2" speed="13.89" disallow="pedestrian bicycle tram rail_urban rail rail_electric ship" oneway="1"/>
    <type id="highway.trunk_link" priority="8" numLanes="1" speed="13.89" disallow="pedestrian bicycle tram rail_urban rail rail_electric ship" oneway="1"/>
    <type id="highway.unclassified" priority="4" numLanes="1" speed="13.89" disallow="pedestrian tram rail_urban rail rail_electric ship" oneway="1" sidewalkWidth="-1.00"/>
    <type id="highway.unsurfaced" priority="1" numLanes="1" speed="8.33" disallow="tram rail_urban rail rail_electric ship" oneway="1"/>
    <type id="railway.highspeed" priority="21" numLanes="1" speed="69.44" allow="rail_electric" oneway="1"/>
    <type id="railway.light_rail" priority="19" numLanes="1" speed="27.78" allow="rail_urban" oneway="1"/>
    <type id="railway.preserved" priority="16" numLanes="1" speed="27.78" allow="rail" oneway="1"/>
    <type id="railway.rail" priority="20" numLanes="1" speed="44.44" allow="rail" oneway="1"/>
    <type id="railway.subway" priority="18" numLanes="1" speed="27.78" allow="rail_urban" oneway="1"/>
    <type id="railway.tram" priority="17" numLanes="1" speed="13.89" allow="tram" oneway="1"/>

    <edge id=":1507762172_w0" function="walkingarea">
        <lane id=":1507762172_w0_0" index="0" allow="pedestrian" speed="1.00" length="18.71" width="3.00" shape="6752.44,5193.54 6755.43,5193.81 6733.86,5191.38 6736.84,5191.78"/>
    </edge>
    <edge id=":1507762205_0" function="internal">
        <lane id=":1507762205_0_0" index="0" allow="bicycle" speed="13.89" length="8.18" width="1.50" shape="6744.35,5269.91 6744.28,5272.33 6744.61,5274.00 6744.93,5275.66 6744.83,5278.08"/>
        <lane id=":1507762205_0_1" index="1" disallow="pedestrian bicycle tram rail_urban rail rail_electric rail_fast ship" speed="13.89" length="8.18" shape="6742.02,5269.60 6741.95,5272.01 6742.28,5273.68 6742.60,5275.34 6742.51,5277.74"/>
        <lane id=":1507762205_0_2" index="2" disallow="pedestrian bicycle tram rail_urban rail rail_electric rail_fast ship" speed="13.89" length="8.18" shape="6738.85,5269.19 6738.78,5271.58 6739.11,5273.24 6739.43,5274.89 6739.34,5277.28"/>
        <lane id=":1507762205_0_3" index="3" disallow="pedestrian bicycle tram rail_urban rail rail_electric rail_fast ship" speed="13.89" length="8.18" shape="6738.85,5269.19 6738.29,5271.51 6737.53,5273.01 6736.76,5274.50 6736.17,5276.82"/>
    </edge>
    <edge id=":1507762205_w0" function="walkingarea">
        <lane id=":1507762205_w0_0" index="0" allow="pedestrian" speed="1.00" length="8.21" width="3.00" shape="6745.57,5278.19 6748.54,5278.62 6748.07,5270.40 6745.09,5270.01 6744.98,5271.74 6745.11,5273.03 6745.35,5274.10 6745.59,5275.17 6745.70,5276.46"/>
    </edge>
    <edge id=":1507762247_0" function="internal">
        <lane id=":1507762247_0_0" index="0" allow="bicycle" speed="13.89" length="8.19" width="1.50" shape="6713.10,5361.13 6713.28,5358.78 6713.00,5357.15 6712.70,5355.51 6712.79,5353.14"/>
        <lane id=":1507762247_0_1" index="1" disallow="pedestrian bicycle tram rail_urban rail rail_electric rail_fast ship" speed="13.89" length="8.19" shape="6715.42,5361.56 6715.59,5359.18 6715.32,5357.53 6715.02,5355.87 6715.11,5353.48"/>
        <lane id=":1507762247_0_2" index="2" disallow="pedestrian bicycle tram rail_urban rail rail_electric rail_fast ship" speed="13.89" length="8.19" shape="6718.56,5362.13 6718.75,5359.72 6718.48,5358.04 6718.18,5356.36 6718.28,5353.94"/>
        <lane id=":1507762247_0_3" index="3" disallow="pedestrian bicycle tram rail_urban rail rail_electric rail_fast ship" speed="13.89" length="8.19" shape="6718.56,5362.13 6719.24,5359.78 6720.06,5358.27 6720.85,5356.76 6721.45,5354.39"/>
    </edge>
    <edge id=":1507762247_w0" function="walkingarea">
        <lane id=":1507762247_w0_0" index="0" allow="pedestrian" speed="1.00" length="7.91" width="3.00" shape="6712.05,5353.04 6709.08,5352.61 6709.41,5360.46 6712.37,5361.00 6712.55,5359.32 6712.48,5358.07 6712.26,5357.03 6712.04,5355.98 6711.92,5354.72"/>
    </edge>
    <edge id=":cluster_25579770_2633530003_2633530004_2633530005_0" function="internal">
        <lane id=":cluster_25579770_2633530003_2633530004_2633530005_0_0" index="0" allow="bicycle" speed="6.61" length="9.98" width="1.50" shape="6742.81,5328.43 6739.45,5328.13 6736.96,5328.56 6735.33,5329.74 6734.56,5331.66"/>
    </edge>
    <edge id=":cluster_25579770_2633530003_2633530004_2633530005_1" function="internal">
        <lane id=":cluster_25579770_2633530003_2633530004_2633530005_1_0" index="0" allow="bicycle" speed="13.89" length="31.49" width="2.00" shape="6742.81,5328.43 6711.96,5322.12"/>
    </edge>
    <edge id=":cluster_25579770_2633530003_2633530004_2633530005_2" function="internal">
        <lane id=":cluster_25579770_2633530003_2633530004_2633530005_2_0" index="0" allow="bicycle" speed="13.89" length="28.00" width="1.50" shape="6742.84,5328.28 6738.54,5328.08 6735.62,5328.48 6716.18,5325.12 6716.40,5324.12"/>
    </edge>
    <edge id=":cluster_25579770_2633530003_2633530004_2633530005_3" function="internal">
        <lane id=":cluster_25579770_2633530003_2633530004_2633530005_3_0" index="0" disallow="pedestrian bicycle tram rail_urban rail rail_electric rail_fast ship" speed="7.86" length="4.45" shape="6743.27,5325.87 6738.83,5325.54"/>
    </edge>
    <edge id=":cluster_25579770_2633530003_2633530004_2633530005_4" function="internal">
        <lane id=":cluster_25579770_2633530003_2633530004_2633530005_4_0" index="0" disallow="pedestrian bicycle tram rail_urban rail rail_electric rail_fast ship" speed="13.89" length="31.62" shape="6743.27,5325.87 6712.33,5319.55"/>
        <lane id=":cluster_25579770_2633530003_2633530004_2633530005_4_1" index="1" disallow="pedestrian bicycle tram rail_urban rail rail_electric rail_fast ship" speed="13.89" length="31.62" shape="6743.83,5322.72 6712.79,5316.38"/>
    </edge>
    <edge id=":cluster_25579770_2633530003_2633530004_2633530005_6" function="internal">
        <lane id=":cluster_25579770_2633530003_2633530004_2633530005_6_0" index="0" disallow="pedestrian bicycle tram rail_urban rail rail_electric rail_fast ship" speed="11.81" length="16.31" shape="6744.38,5319.57 6736.11,5316.98 6730.48,5312.63 6730.25,5312.16"/>
    </edge>
    <edge id=":cluster_25579770_2633530003_2633530004_2633530005_7" function="internal">
        <lane id=":cluster_25579770_2633530003_2633530004_2633530005_7_0" index="0" disallow="pedestrian bicycle tram rail_urban rail rail_electric rail_fast ship" speed="4.65" length="6.22" shape="6744.38,5319.57 6742.38,5317.65 6741.89,5316.00 6742.92,5314.62"/>
    </edge>
    <edge id=":cluster_25579770_2633530003_2633530004_2633530005_31" function="internal">
        <lane id=":cluster_25579770_2633530003_2633530004_2633530005_31_0" index="0" allow="bicycle" speed="13.89" length="26.62" width="1.50" shape="6716.40,5324.12 6719.61,5309.86 6721.61,5298.03"/>
    </edge>
    <edge id=":cluster_25579770_2633530003_2633530004_2633530005_32" function="internal">
        <lane id=":cluster_25579770_2633530003_2633530004_2633530005_32_0" index="0" disallow="pedestrian bicycle tram rail_urban rail rail_electric rail_fast ship" speed="7.86" length="9.57" shape="6738.83,5325.54 6735.52,5326.34 6733.32,5328.27 6732.24,5331.33"/>
    </edge>
    <edge id=":cluster_25579770_2633530003_2633530004_2633530005_33" function="internal">
        <lane id=":cluster_25579770_2633530003_2633530004_2633530005_33_0" index="0" disallow="pedestrian bicycle tram rail_urban rail rail_electric rail_fast ship" speed="11.81" length="14.17" shape="6730.25,5312.16 6727.49,5306.51 6727.13,5298.63"/>
    </edge>
    <edge id=":cluster_25579770_2633530003_2633530004_2633530005_34" function="internal">
        <lane id=":cluster_25579770_2633530003_2633530004_2633530005_34_0" index="0" disallow="pedestrian bicycle tram rail_urban rail rail_electric rail_fast ship" speed="4.65" length="2.78" shape="6742.92,5314.62 6745.46,5313.50"/>
    </edge>
    <edge id=":cluster_25579770_2633530003_2633530004_2633530005_8" function="internal">
        <lane id=":cluster_25579770_2633530003_2633530004_2633530005_8_0" index="0" allow="bicycle" speed="6.77" length="5.87" width="2.00" shape="6741.61,5300.23 6741.56,5303.15 6742.35,5305.39 6742.77,5305.78"/>
    </edge>
    <edge id=":cluster_25579770_2633530003_2633530004_2633530005_9" function="internal">
        <lane id=":cluster_25579770_2633530003_2633530004_2633530005_9_0" index="0" allow="bicycle" speed="13.89" length="32.21" width="1.50" shape="6741.61,5300.23 6734.56,5331.66"/>
    </edge>
    <edge id=":cluster_25579770_2633530003_2633530004_2633530005_10" function="internal">
        <lane id=":cluster_25579770_2633530003_2633530004_2633530005_10_0" index="0" allow="bicycle" speed="13.89" length="30.00" width="2.00" shape="6741.61,5300.23 6741.50,5303.46 6742.41,5306.28 6738.60,5328.23 6737.10,5327.97"/>
    </edge>
    <edge id=":cluster_25579770_2633530003_2633530004_2633530005_11" function="internal">
        <lane id=":cluster_25579770_2633530003_2633530004_2633530005_11_0" index="0" disallow="pedestrian bicycle tram rail_urban rail rail_electric rail_fast ship" speed="8.05" length="4.01" shape="6739.27,5299.97 6739.21,5303.98"/>
    </edge>
    <edge id=":cluster_25579770_2633530003_2633530004_2633530005_12" function="internal">
        <lane id=":cluster_25579770_2633530003_2633530004_2633530005_12_0" index="0" disallow="pedestrian bicycle tram rail_urban rail rail_electric rail_fast ship" speed="13.89" length="32.08" shape="6739.27,5299.97 6732.24,5331.33"/>
        <lane id=":cluster_25579770_2633530003_2633530004_2633530005_12_1" index="1" disallow="pedestrian bicycle tram rail_urban rail rail_electric rail_fast ship" speed="13.89" length="32.08" shape="6736.09,5299.62 6729.07,5330.87"/>
    </edge>
    <edge id=":cluster_25579770_2633530003_2633530004_2633530005_14" function="internal">
        <lane id=":cluster_25579770_2633530003_2633530004_2633530005_14_0" index="0" disallow="pedestrian bicycle tram rail_urban rail rail_electric rail_fast ship" speed="11.44" length="3.67" shape="6732.91,5299.27 6731.93,5302.81"/>
    </edge>
    <edge id=":cluster_25579770_2633530003_2633530004_2633530005_15" function="internal">
        <lane id=":cluster_25579770_2633530003_2633530004_2633530005_15_0" index="0" disallow="pedestrian bicycle tram rail_urban rail rail_electric rail_fast ship" speed="4.56" length="5.87" shape="6732.91,5299.27 6731.22,5301.28 6729.70,5301.84 6728.34,5300.96"/>
    </edge>
    <edge id=":cluster_25579770_2633530003_2633530004_2633530005_35" function="internal">
        <lane id=":cluster_25579770_2633530003_2633530004_2633530005_35_0" index="0" allow="bicycle" speed="6.77" length="4.31" width="2.00" shape="6742.77,5305.78 6743.99,5306.93 6746.47,5307.79"/>
    </edge>
    <edge id=":cluster_25579770_2633530003_2633530004_2633530005_36" function="internal">
        <lane id=":cluster_25579770_2633530003_2633530004_2633530005_36_0" index="0" allow="bicycle" speed="13.89" length="25.84" width="2.00" shape="6737.10,5327.97 6736.37,5327.84 6720.68,5323.65 6711.99,5321.94"/>
    </edge>
    <edge id=":cluster_25579770_2633530003_2633530004_2633530005_37" function="internal">
        <lane id=":cluster_25579770_2633530003_2633530004_2633530005_37_0" index="0" disallow="pedestrian bicycle tram rail_urban rail rail_electric rail_fast ship" speed="8.05" length="10.01" shape="6739.21,5303.98 6740.31,5307.04 6742.58,5309.17 6746.02,5310.35"/>
    </edge>
    <edge id=":cluster_25579770_2633530003_2633530004_2633530005_38" function="internal">
        <lane id=":cluster_25579770_2633530003_2633530004_2633530005_38_0" index="0" disallow="pedestrian bicycle tram rail_urban rail rail_electric rail_fast ship" speed="11.44" length="26.40" shape="6731.93,5302.81 6730.58,5307.69 6726.45,5313.35 6720.52,5316.25 6712.79,5316.38"/>
    </edge>
    <edge id=":cluster_25579770_2633530003_2633530004_2633530005_39" function="internal">
        <lane id=":cluster_25579770_2633530003_2633530004_2633530005_39_0" index="0" disallow="pedestrian bicycle tram rail_urban rail rail_electric rail_fast ship" speed="4.56" length="2.62" shape="6728.34,5300.96 6727.13,5298.63"/>
    </edge>
    <edge id=":cluster_25579770_2633530003_2633530004_2633530005_16" function="internal">
        <lane id=":cluster_25579770_2633530003_2633530004_2633530005_16_0" index="0" allow="bicycle" speed="6.12" length="8.77" width="1.50" shape="6714.93,5301.62 6717.66,5301.84 6719.68,5301.32 6721.00,5300.05 6721.61,5298.03"/>
    </edge>
    <edge id=":cluster_25579770_2633530003_2633530004_2633530005_17" function="internal">
        <lane id=":cluster_25579770_2633530003_2633530004_2633530005_17_0" index="0" allow="bicycle" speed="13.89" length="32.14" width="2.00" shape="6714.93,5301.62 6746.47,5307.79"/>
    </edge>
    <edge id=":cluster_25579770_2633530003_2633530004_2633530005_18" function="internal">
        <lane id=":cluster_25579770_2633530003_2633530004_2633530005_18_0" index="0" allow="bicycle" speed="13.89" length="29.00" width="1.50" shape="6714.93,5301.62 6720.39,5301.36 6741.92,5304.05 6741.34,5305.79"/>
    </edge>
    <edge id=":cluster_25579770_2633530003_2633530004_2633530005_19" function="internal">
        <lane id=":cluster_25579770_2633530003_2633530004_2633530005_19_0" index="0" disallow="pedestrian bicycle tram rail_urban rail rail_electric rail_fast ship" speed="7.44" length="4.06" shape="6714.56,5304.20 6718.35,5304.45 6718.59,5304.37"/>
    </edge>
    <edge id=":cluster_25579770_2633530003_2633530004_2633530005_20" function="internal">
        <lane id=":cluster_25579770_2633530003_2633530004_2633530005_20_0" index="0" disallow="pedestrian bicycle tram rail_urban rail rail_electric rail_fast ship" speed="13.89" length="32.01" shape="6714.56,5304.20 6746.02,5310.35"/>
        <lane id=":cluster_25579770_2633530003_2633530004_2633530005_20_1" index="1" disallow="pedestrian bicycle tram rail_urban rail rail_electric rail_fast ship" speed="13.89" length="32.01" shape="6714.10,5307.37 6745.46,5313.50"/>
    </edge>
    <edge id=":cluster_25579770_2633530003_2633530004_2633530005_22" function="internal">
        <lane id=":cluster_25579770_2633530003_2633530004_2633530005_22_0" index="0" disallow="pedestrian bicycle tram rail_urban rail rail_electric rail_fast ship" speed="11.41" length="14.95" shape="6713.64,5310.54 6721.30,5313.11 6726.42,5317.36 6726.51,5317.55"/>
    </edge>
    <edge id=":cluster_25579770_2633530003_2633530004_2633530005_23" function="internal">
        <lane id=":cluster_25579770_2633530003_2633530004_2633530005_23_0" index="0" disallow="pedestrian bicycle tram rail_urban rail rail_electric rail_fast ship" speed="4.60" length="5.96" shape="6713.64,5310.54 6715.62,5312.32 6716.14,5313.88 6715.20,5315.24"/>
    </edge>
    <edge id=":cluster_25579770_2633530003_2633530004_2633530005_40" function="internal">
        <lane id=":cluster_25579770_2633530003_2633530004_2633530005_40_0" index="0" allow="bicycle" speed="13.89" length="26.76" width="1.50" shape="6741.34,5305.79 6739.33,5311.77 6734.56,5331.66"/>
    </edge>
    <edge id=":cluster_25579770_2633530003_2633530004_2633530005_41" function="internal">
        <lane id=":cluster_25579770_2633530003_2633530004_2633530005_41_0" index="0" disallow="pedestrian bicycle tram rail_urban rail rail_electric rail_fast ship" speed="7.44" length="8.83" shape="6718.59,5304.37 6721.18,5303.55 6723.05,5301.49 6723.95,5298.28"/>
    </edge>
    <edge id=":cluster_25579770_2633530003_2633530004_2633530005_42" function="internal">
        <lane id=":cluster_25579770_2633530003_2633530004_2633530005_42_0" index="0" disallow="pedestrian bicycle tram rail_urban rail rail_electric rail_fast ship" speed="11.41" length="13.84" shape="6726.51,5317.55 6729.02,5323.28 6729.07,5330.87"/>
    </edge>
    <edge id=":cluster_25579770_2633530003_2633530004_2633530005_43" function="internal">
        <lane id=":cluster_25579770_2633530003_2633530004_2633530005_43_0" index="0" disallow="pedestrian bicycle tram rail_urban rail rail_electric rail_fast ship" speed="4.60" length="2.66" shape="6715.20,5315.24 6712.79,5316.38"/>
    </edge>
    <edge id=":cluster_25579770_2633530003_2633530004_2633530005_24" function="internal">
        <lane id=":cluster_25579770_2633530003_2633530004_2633530005_24_0" index="0" allow="bicycle" speed="6.40" length="4.78" width="2.00" shape="6716.27,5329.03 6716.33,5326.29 6715.68,5324.35"/>
    </edge>
    <edge id=":cluster_25579770_2633530003_2633530004_2633530005_25" function="internal">
        <lane id=":cluster_25579770_2633530003_2633530004_2633530005_25_0" index="0" allow="bicycle" speed="13.89" length="31.46" width="1.50" shape="6716.27,5329.03 6721.61,5298.03"/>
    </edge>
    <edge id=":cluster_25579770_2633530003_2633530004_2633530005_26" function="internal">
        <lane id=":cluster_25579770_2633530003_2633530004_2633530005_26_0" index="0" allow="bicycle" speed="13.89" length="32.00" width="2.00" shape="6716.26,5329.03 6716.78,5325.85 6715.58,5322.83 6713.92,5321.70 6716.89,5301.58 6719.06,5301.81 6720.02,5302.08"/>
    </edge>
    <edge id=":cluster_25579770_2633530003_2633530004_2633530005_27" function="internal">
        <lane id=":cluster_25579770_2633530003_2633530004_2633530005_27_0" index="0" disallow="pedestrian bicycle tram rail_urban rail rail_electric rail_fast ship" speed="7.75" length="4.44" shape="6718.59,5329.36 6718.67,5325.48 6718.49,5324.95"/>
    </edge>
    <edge id=":cluster_25579770_2633530003_2633530004_2633530005_28" function="internal">
        <lane id=":cluster_25579770_2633530003_2633530004_2633530005_28_0" index="0" disallow="pedestrian bicycle tram rail_urban rail rail_electric rail_fast ship" speed="13.89" length="31.59" shape="6718.59,5329.36 6723.95,5298.28"/>
        <lane id=":cluster_25579770_2633530003_2633530004_2633530005_28_1" index="1" disallow="pedestrian bicycle tram rail_urban rail rail_electric rail_fast ship" speed="13.89" length="31.59" shape="6721.76,5329.82 6727.13,5298.63"/>
    </edge>
    <edge id=":cluster_25579770_2633530003_2633530004_2633530005_30" function="internal">
        <lane id=":cluster_25579770_2633530003_2633530004_2633530005_30_0" index="0" disallow="pedestrian bicycle tram rail_urban rail rail_electric rail_fast ship" speed="11.36" length="3.30" shape="6724.93,5330.27 6725.81,5327.09"/>
    </edge>
    <edge id=":cluster_25579770_2633530003_2633530004_2633530005_44" function="internal">
        <lane id=":cluster_25579770_2633530003_2633530004_2633530005_44_0" index="0" allow="bicycle" speed="6.40" length="4.48" width="2.00" shape="6715.68,5324.35 6715.63,5324.22 6714.18,5322.83 6711.96,5322.12"/>
    </edge>
    <edge id=":cluster_25579770_2633530003_2633530004_2633530005_45" function="internal">
        <lane id=":cluster_25579770_2633530003_2633530004_2633530005_45_0" index="0" allow="bicycle" speed="13.89" length="27.07" width="2.00" shape="6720.02,5302.08 6724.38,5303.32 6746.47,5307.79"/>
    </edge>
    <edge id=":cluster_25579770_2633530003_2633530004_2633530005_46" function="internal">
        <lane id=":cluster_25579770_2633530003_2633530004_2633530005_46_0" index="0" disallow="pedestrian bicycle tram rail_urban rail rail_electric rail_fast ship" speed="7.75" length="8.81" shape="6718.49,5324.95 6717.66,5322.55 6715.54,5320.57 6712.33,5319.55"/>
    </edge>
    <edge id=":cluster_25579770_2633530003_2633530004_2633530005_47" function="internal">
        <lane id=":cluster_25579770_2633530003_2633530004_2633530005_47_0" index="0" disallow="pedestrian bicycle tram rail_urban rail rail_electric rail_fast ship" speed="11.36" length="27.12" shape="6725.81,5327.09 6727.29,5321.76 6731.50,5316.13 6737.55,5313.38 6745.46,5313.50"/>
    </edge>
    <edge id=":cluster_25579770_2633530003_2633530004_2633530005_c0" function="crossing" crossingEdges="305495773#0 814691984#1">
        <lane id=":cluster_25579770_2633530003_2633530004_2633530005_c0_0" index="0" allow="pedestrian" speed="1.00" length="22.96" width="4.00" shape="6744.68,5306.46 6740.67,5329.07"/>
    </edge>
    <edge id=":cluster_25579770_2633530003_2633530004_2633530005_c1" function="crossing" crossingEdges="31894763#0 137463477#1">
        <lane id=":cluster_25579770_2633530003_2633530004_2633530005_c1_0" index="0" allow="pedestrian" speed="1.00" length="21.55" width="4.00" shape="6720.65,5299.93 6742.07,5302.31"/>
    </edge>
    <edge id=":cluster_25579770_2633530003_2633530004_2633530005_c2" function="crossing" crossingEdges="305390325#0 31342064#2">
        <lane id=":cluster_25579770_2633530003_2633530004_2633530005_c2_0" index="0" allow="pedestrian" speed="1.00" length="22.62" width="4.00" shape="6713.80,5323.40 6717.09,5301.02"/>
    </edge>
    <edge id=":cluster_25579770_2633530003_2633530004_2633530005_c3" function="crossing" crossingEdges="25902677#1 25796398#1">
        <lane id=":cluster_25579770_2633530003_2633530004_2633530005_c3_0" index="0" allow="pedestrian" speed="1.00" length="19.98" width="4.00" shape="6735.59,5329.79 6715.81,5326.94"/>
    </edge>
    <edge id=":cluster_25579770_2633530003_2633530004_2633530005_w0" function="walkingarea">